Version 4.1
SHEET 1 880 712
WIRE -352 -112 -416 -112
WIRE -336 -112 -352 -112
WIRE -352 -80 -416 -80
WIRE -144 -80 -208 -80
WIRE -352 -48 -416 -48
WIRE 48 -48 -208 -48
WIRE -352 -16 -368 -16
WIRE 48 96 48 -48
WIRE 208 96 48 96
WIRE -352 112 -416 112
WIRE 208 128 48 128
WIRE -352 144 -416 144
WIRE 48 144 48 128
WIRE 48 144 -208 144
WIRE 208 160 48 160
WIRE -368 176 -368 -16
WIRE -352 176 -368 176
WIRE 208 192 112 192
WIRE 448 192 352 192
WIRE 464 192 448 192
WIRE 448 256 448 192
WIRE 208 288 192 288
WIRE -352 304 -416 304
WIRE -352 336 -416 336
WIRE 48 336 48 160
WIRE 48 336 -208 336
WIRE -368 368 -368 176
WIRE -352 368 -368 368
WIRE -352 480 -416 480
WIRE -352 512 -416 512
WIRE 112 512 112 192
WIRE 112 512 -208 512
WIRE -368 544 -368 368
WIRE -352 544 -368 544
WIRE -368 592 -368 544
WIRE -352 592 -368 592
WIRE 192 592 192 288
WIRE 192 592 -352 592
FLAG -352 672 0
FLAG -992 288 S1
IOPIN -992 288 In
FLAG -992 480 S0
IOPIN -992 480 In
FLAG 208 256 S1
IOPIN 208 256 In
FLAG 208 224 S0
IOPIN 208 224 In
FLAG 464 192 Vout
IOPIN 464 192 Out
FLAG -992 368 0
FLAG -992 560 0
FLAG -1024 -64 0
FLAG -1024 128 0
FLAG -688 288 0
FLAG -1024 -144 A
IOPIN -1024 -144 In
FLAG -1024 48 B
IOPIN -1024 48 In
FLAG -688 192 Cin
IOPIN -688 192 In
FLAG -416 304 A
IOPIN -416 304 In
FLAG -416 480 A
IOPIN -416 480 In
FLAG -416 112 A
IOPIN -416 112 In
FLAG -416 -112 A
IOPIN -416 -112 In
FLAG -416 -80 B
IOPIN -416 -80 In
FLAG -416 144 B
IOPIN -416 144 In
FLAG -416 336 B
IOPIN -416 336 In
FLAG -416 512 B
IOPIN -416 512 In
FLAG -416 -48 Cin
IOPIN -416 -48 In
FLAG -144 -80 Cout
IOPIN -144 -80 Out
FLAG 448 320 0
SYMBOL mux4 272 192 R0
SYMATTR InstName 4to1MUX
SYMBOL fa -288 -64 R0
SYMATTR InstName SUM
SYMBOL and2 -288 144 R0
SYMATTR InstName AND
SYMBOL or2 -288 336 R0
SYMATTR InstName OR
SYMBOL xor2 -288 512 R0
SYMATTR InstName XOR
SYMBOL voltage -352 576 R0
WINDOW 123 0 0 Left 0
WINDOW 39 0 0 Left 0
SYMATTR InstName Vdd
SYMATTR Value 1.8
SYMBOL voltage -992 272 R0
WINDOW 123 0 0 Left 0
WINDOW 39 0 0 Left 0
SYMATTR InstName S1
SYMATTR Value PULSE(0 1.8 10n 10p 10p 10n 20n)
SYMBOL voltage -992 464 R0
WINDOW 123 0 0 Left 0
WINDOW 39 0 0 Left 0
SYMATTR InstName S0
SYMATTR Value PULSE(0 1.8 5n 10p 10p 5n 10n)
SYMBOL voltage -1024 -160 R0
WINDOW 123 0 0 Left 0
WINDOW 39 0 0 Left 0
SYMATTR InstName A
SYMATTR Value PULSE(0 1.8 40n 10p 10p 40n 80n)
SYMBOL voltage -1024 32 R0
WINDOW 123 0 0 Left 0
WINDOW 39 0 0 Left 0
WINDOW 3 36 41 Left 2
SYMATTR InstName B
SYMATTR Value PULSE(0 1.8 20n 10p 10p 20n 40n)
SYMBOL voltage -688 176 R0
WINDOW 123 0 0 Left 0
WINDOW 39 0 0 Left 0
SYMATTR InstName Cin
SYMATTR Value 0
SYMBOL cap 432 256 R0
SYMATTR InstName C1
SYMATTR Value 5f
TEXT -1056 696 Left 2 !.tran 80n
