Version 4.1
SHEET 1 1072 680
WIRE 144 -256 80 -256
WIRE 160 -256 144 -256
WIRE 144 -224 80 -224
WIRE 336 -224 336 -272
WIRE 336 -224 288 -224
WIRE 352 -224 336 -224
WIRE 144 -192 80 -192
WIRE 544 -192 288 -192
WIRE 144 -160 128 -160
WIRE 544 -48 544 -192
WIRE 704 -48 544 -48
WIRE 144 -32 80 -32
WIRE 704 -16 544 -16
WIRE 144 0 80 0
WIRE 544 0 544 -16
WIRE 544 0 288 0
WIRE 704 16 544 16
WIRE 128 32 128 -160
WIRE 144 32 128 32
WIRE 704 48 608 48
WIRE 944 48 848 48
WIRE 960 48 944 48
WIRE 944 112 944 48
WIRE 704 144 688 144
WIRE 144 160 80 160
WIRE 144 192 80 192
WIRE 544 192 544 16
WIRE 544 192 288 192
WIRE 128 224 128 32
WIRE 144 224 128 224
WIRE 144 336 80 336
WIRE 144 368 80 368
WIRE 608 368 608 48
WIRE 608 368 288 368
WIRE 128 400 128 224
WIRE 144 400 128 400
WIRE 128 448 128 400
WIRE 144 448 128 448
WIRE 688 448 688 144
WIRE 688 448 144 448
FLAG 144 528 0
FLAG 704 112 S1
IOPIN 704 112 In
FLAG 704 80 S0
IOPIN 704 80 In
FLAG 960 48 Vout
IOPIN 960 48 Out
FLAG 80 160 A
IOPIN 80 160 In
FLAG 80 336 A
IOPIN 80 336 In
FLAG 80 -32 A
IOPIN 80 -32 In
FLAG 80 -256 A
IOPIN 80 -256 In
FLAG 80 -224 B
IOPIN 80 -224 In
FLAG 80 0 B
IOPIN 80 0 In
FLAG 80 192 B
IOPIN 80 192 In
FLAG 80 368 B
IOPIN 80 368 In
FLAG 80 -192 Cin
IOPIN 80 -192 In
FLAG 352 -224 Cout
IOPIN 352 -224 Out
FLAG 944 176 0
FLAG 336 -336 0
SYMBOL mux4 768 48 R0
SYMATTR InstName X1
SYMBOL fa 208 -208 R0
SYMATTR InstName SUM1
SYMBOL and2 208 0 R0
SYMATTR InstName AND1
SYMBOL or2 208 192 R0
SYMATTR InstName OR1
SYMBOL xor2 208 368 R0
SYMATTR InstName XOR1
SYMBOL voltage 144 432 R0
WINDOW 123 0 0 Left 0
WINDOW 39 0 0 Left 0
SYMATTR InstName Vdd1
SYMATTR Value 1.8
SYMBOL cap 928 112 R0
SYMATTR InstName C1
SYMATTR Value 5f
SYMBOL cap 320 -336 R0
SYMATTR InstName C2
SYMATTR Value 5f
