Version 4.1
SHEET 1 948 1320
WIRE -192 -112 -256 -112
WIRE 112 -112 -192 -112
WIRE 400 -112 112 -112
WIRE 704 -112 400 -112
WIRE -176 -64 -256 -64
WIRE 128 -64 -176 -64
WIRE 416 -64 128 -64
WIRE 720 -64 416 -64
WIRE -192 64 -192 -112
WIRE -192 64 -208 64
WIRE 112 64 112 -112
WIRE 112 64 96 64
WIRE 400 64 400 -112
WIRE 400 64 384 64
WIRE 704 64 704 -112
WIRE 704 64 688 64
WIRE -176 96 -176 -64
WIRE -176 96 -208 96
WIRE 128 96 128 -64
WIRE 128 96 96 96
WIRE 416 96 416 -64
WIRE 416 96 384 96
WIRE 720 96 720 -64
WIRE 720 96 688 96
WIRE -352 112 -400 112
WIRE -48 112 -112 112
WIRE 240 112 176 112
WIRE 544 112 480 112
WIRE -144 128 -208 128
WIRE 160 128 96 128
WIRE 464 128 384 128
WIRE 704 128 688 128
WIRE -352 144 -512 144
WIRE -144 144 -144 128
WIRE -48 144 -144 144
WIRE 160 144 160 128
WIRE 240 144 160 144
WIRE 464 144 464 128
WIRE 544 144 464 144
WIRE -176 160 -208 160
WIRE 128 160 96 160
WIRE 416 160 384 160
WIRE 688 160 672 160
WIRE 736 160 688 160
WIRE -192 192 -208 192
WIRE 96 192 80 192
WIRE 112 192 96 192
WIRE 400 192 384 192
WIRE 720 192 688 192
WIRE -176 288 -176 160
WIRE -176 288 -224 288
WIRE 128 288 128 160
WIRE 128 288 80 288
WIRE 416 288 416 160
WIRE 416 288 368 288
WIRE 736 288 736 160
WIRE 736 288 672 288
WIRE -192 320 -192 192
WIRE -192 320 -224 320
WIRE 112 320 112 192
WIRE 112 320 80 320
WIRE 400 320 400 192
WIRE 400 320 368 320
WIRE 720 320 720 192
WIRE 720 320 672 320
WIRE 704 352 704 128
WIRE 704 352 672 352
WIRE -512 400 -512 144
WIRE -496 400 -512 400
WIRE -400 400 -400 112
WIRE -384 400 -400 400
WIRE -112 400 -112 112
WIRE -96 400 -112 400
WIRE 176 416 176 112
WIRE 192 416 176 416
WIRE 480 416 480 112
WIRE 496 416 480 416
FLAG 512 608 S1
IOPIN 512 608 In
FLAG -256 -112 S1
IOPIN -256 -112 In
FLAG -256 -64 S0
IOPIN -256 -64 In
FLAG 512 768 S0
IOPIN 512 768 In
FLAG 496 416 Y0
IOPIN 496 416 Out
FLAG -96 400 Y2
IOPIN -96 400 Out
FLAG -384 400 Y3
IOPIN -384 400 Out
FLAG 192 416 Y1
IOPIN 192 416 Out
FLAG 512 688 0
FLAG 512 848 0
FLAG -288 672 0
FLAG -304 864 0
FLAG -144 864 0
FLAG -144 672 0
FLAG -16 672 0
FLAG -16 864 0
FLAG 112 864 0
FLAG 112 672 0
FLAG 352 784 0
FLAG -496 400 Cout
IOPIN -496 400 Out
FLAG 112 592 A0
IOPIN 112 592 In
FLAG -16 592 A1
IOPIN -16 592 In
FLAG -144 592 A2
IOPIN -144 592 In
FLAG -288 592 A3
IOPIN -288 592 In
FLAG -224 320 A3
IOPIN -224 320 In
FLAG 80 320 A2
IOPIN 80 320 In
FLAG 368 320 A1
IOPIN 368 320 In
FLAG 672 320 A0
IOPIN 672 320 In
FLAG 112 784 B0
IOPIN 112 784 In
FLAG -16 784 B1
IOPIN -16 784 In
FLAG -144 784 B2
IOPIN -144 784 In
FLAG -304 784 B3
IOPIN -304 784 In
FLAG -224 288 B3
IOPIN -224 288 In
FLAG 80 288 B2
IOPIN 80 288 In
FLAG 368 288 B1
IOPIN 368 288 In
FLAG 672 288 B0
IOPIN 672 288 In
FLAG 352 704 Cin
IOPIN 352 704 In
FLAG 672 352 Cin
IOPIN 672 352 In
SYMBOL 4bitALU 624 128 R180
SYMATTR InstName ALU_0
SYMBOL 4bitALU 320 128 R180
SYMATTR InstName ALU_1
SYMBOL 4bitALU 32 128 R180
SYMATTR InstName ALI_2
SYMBOL 4bitALU -272 128 R180
SYMATTR InstName ALU_4
SYMBOL voltage 512 592 R0
WINDOW 123 0 0 Left 0
WINDOW 39 0 0 Left 0
SYMATTR InstName V1
SYMATTR Value PULSE(0 1.8 10n 10p 10p 10n 20n)
SYMBOL voltage 512 752 R0
WINDOW 123 0 0 Left 0
WINDOW 39 0 0 Left 0
SYMATTR InstName V2
SYMATTR Value PULSE(0 1.8 5n 10p 10p 5n 10n)
SYMBOL voltage -288 576 R0
WINDOW 123 0 0 Left 0
WINDOW 39 0 0 Left 0
SYMATTR InstName A3
SYMATTR Value 1.8
SYMBOL voltage -144 576 R0
WINDOW 123 0 0 Left 0
WINDOW 39 0 0 Left 0
SYMATTR InstName A2
SYMATTR Value 0
SYMBOL voltage -16 576 R0
WINDOW 123 0 0 Left 0
WINDOW 39 0 0 Left 0
SYMATTR InstName A1
SYMATTR Value 1.8
SYMBOL voltage 112 576 R0
WINDOW 123 0 0 Left 0
WINDOW 39 0 0 Left 0
SYMATTR InstName A0
SYMATTR Value 0
SYMBOL voltage -304 768 R0
WINDOW 123 0 0 Left 0
WINDOW 39 0 0 Left 0
SYMATTR InstName B3
SYMATTR Value 1.8
SYMBOL voltage -144 768 R0
WINDOW 123 0 0 Left 0
WINDOW 39 0 0 Left 0
SYMATTR InstName B2
SYMATTR Value 1.8
SYMBOL voltage -16 768 R0
WINDOW 123 0 0 Left 0
WINDOW 39 0 0 Left 0
SYMATTR InstName B1
SYMATTR Value 0
SYMBOL voltage 112 768 R0
WINDOW 123 0 0 Left 0
WINDOW 39 0 0 Left 0
SYMATTR InstName B0
SYMATTR Value 1.8
SYMBOL voltage 352 688 R0
WINDOW 123 0 0 Left 0
WINDOW 39 0 0 Left 0
SYMATTR InstName V11
SYMATTR Value 0
TEXT -304 936 Left 2 !.tran 40n
